electric-grid/smallsignal/NE-ieee39/PSSE/IEEE 39 bus.raw
 0,    100.00, 33, 0, 0, 60.00       / September 03, 2016 23:03:46; Simulator Version 20 Beta; BuildDate 2016_7_25
NEW ENGLAND TEST SYSTEM, 39 BUSES, 9 GENERATORS
Created by Pablo Ledesma pablole@ing.uc3m.es
    1,'1           ',   1.0000,1,   1,   1,   1,1.04852,  -8.3685, 1.10000, 0.90000, 1.10000, 0.90000
    2,'2           ',   1.0000,1,   1,   1,   1,1.05160,  -5.7719, 1.10000, 0.90000, 1.10000, 0.90000
    3,'3           ',   1.0000,1,   1,   1,   1,1.03642,  -8.6081, 1.10000, 0.90000, 1.10000, 0.90000
    4,'4           ',   1.0000,1,   1,   1,   1,1.01685,  -9.5122, 1.10000, 0.90000, 1.10000, 0.90000
    5,'5           ',   1.0000,1,   1,   1,   1,1.01400,  -8.4324, 1.10000, 0.90000, 1.10000, 0.90000
    6,'6           ',   1.0000,1,   1,   1,   1,1.01090,  -7.7339, 1.10000, 0.90000, 1.10000, 0.90000
    7,'7           ',   1.0000,1,   1,   1,   1,1.00194,  -9.9071, 1.10000, 0.90000, 1.10000, 0.90000
    8,'8           ',   1.0000,1,   1,   1,   1,1.00180, -10.4028, 1.10000, 0.90000, 1.10000, 0.90000
    9,'9           ',   1.0000,1,   1,   1,   1,1.03060, -10.1653, 1.10000, 0.90000, 1.10000, 0.90000
   10,'10          ',   1.0000,1,   1,   1,   1,1.02133,  -5.3060, 1.10000, 0.90000, 1.10000, 0.90000
   11,'11          ',   1.0000,1,   1,   1,   1,1.01661,  -6.1320, 1.10000, 0.90000, 1.10000, 0.90000
   12,'12          ',   1.0000,1,   1,   1,   1,1.00484,  -6.1175, 1.10000, 0.90000, 1.10000, 0.90000
   13,'13          ',   1.0000,1,   1,   1,   1,1.01954,  -5.9987, 1.10000, 0.90000, 1.10000, 0.90000
   14,'14          ',   1.0000,1,   1,   1,   1,1.01961,  -7.6097, 1.10000, 0.90000, 1.10000, 0.90000
   15,'15          ',   1.0000,1,   1,   1,   1,1.02030,  -7.8442, 1.10000, 0.90000, 1.10000, 0.90000
   16,'16          ',   1.0000,1,   1,   1,   1,1.03526,  -6.3739, 1.10000, 0.90000, 1.10000, 0.90000
   17,'17          ',   1.0000,1,   1,   1,   1,1.03760,  -7.4213, 1.10000, 0.90000, 1.10000, 0.90000
   18,'18          ',   1.0000,1,   1,   1,   1,1.03584,  -8.2985, 1.10000, 0.90000, 1.10000, 0.90000
   19,'19          ',   1.0000,1,   1,   1,   1,1.05098,  -1.2211, 1.10000, 0.90000, 1.10000, 0.90000
   20,'20          ',   1.0000,1,   1,   1,   1,0.99166,  -2.2097, 1.10000, 0.90000, 1.10000, 0.90000
   21,'21          ',   1.0000,1,   1,   1,   1,1.03436,  -4.0795, 1.10000, 0.90000, 1.10000, 0.90000
   22,'22          ',   1.0000,1,   1,   1,   1,1.05117,   0.2515, 1.10000, 0.90000, 1.10000, 0.90000
   23,'23          ',   1.0000,1,   1,   1,   1,1.04630,  -0.0177, 1.10000, 0.90000, 1.10000, 0.90000
   24,'24          ',   1.0000,1,   1,   1,   1,1.04059,  -6.2943, 1.10000, 0.90000, 1.10000, 0.90000
   25,'25          ',   1.0000,1,   1,   1,   1,1.05966,  -4.3790, 1.10000, 0.90000, 1.10000, 0.90000
   26,'26          ',   1.0000,1,   1,   1,   1,1.05458,  -5.5939, 1.10000, 0.90000, 1.10000, 0.90000
   27,'27          ',   1.0000,1,   1,   1,   1,1.04097,  -7.5807, 1.10000, 0.90000, 1.10000, 0.90000
   28,'28          ',   1.0000,1,   1,   1,   1,1.05169,  -2.0914, 1.10000, 0.90000, 1.10000, 0.90000
   29,'29          ',   1.0000,1,   1,   1,   1,1.05118,   0.6620, 1.10000, 0.90000, 1.10000, 0.90000
   30,'30          ',   1.0000,2,   1,   1,   1,1.04800,  -3.3599, 1.10000, 0.90000, 1.10000, 0.90000
   31,'31          ',   1.0000,3,   1,   1,   1,0.98200,   0.0000, 1.10000, 0.90000, 1.10000, 0.90000
   32,'32          ',   1.0000,2,   1,   1,   1,0.98300,   2.6580, 1.10000, 0.90000, 1.10000, 0.90000
   33,'33          ',   1.0000,2,   1,   1,   1,0.99700,   3.9954, 1.10000, 0.90000, 1.10000, 0.90000
   34,'34          ',   1.0000,2,   1,   1,   1,1.01200,   2.9813, 1.10000, 0.90000, 1.10000, 0.90000
   35,'35          ',   1.0000,2,   1,   1,   1,1.04900,   5.2081, 1.10000, 0.90000, 1.10000, 0.90000
   36,'36          ',   1.0000,2,   1,   1,   1,1.06400,   7.8211, 1.10000, 0.90000, 1.10000, 0.90000
   37,'37          ',   1.0000,2,   1,   1,   1,1.02800,   2.3933, 1.10000, 0.90000, 1.10000, 0.90000
   38,'38          ',   1.0000,2,   1,   1,   1,1.02700,   7.7156, 1.10000, 0.90000, 1.10000, 0.90000
   39,'39          ',   1.0000,2,   1,   1,   1,1.03000,  -9.9354, 1.10000, 0.90000, 1.10000, 0.90000
0 / END OF BUS DATA, BEGIN LOAD DATA
    1,'1 ',1,   1,   1,     0.000,     0.000,     0.000,     0.000,     0.000,     0.000,   1,1
    2,'1 ',1,   1,   1,     0.000,     0.000,     0.000,     0.000,     0.000,     0.000,   1,1
    3,'1 ',1,   1,   1,   322.000,     2.400,     0.000,     0.000,     0.000,     0.000,   1,1
    4,'1 ',1,   1,   1,   500.000,   184.000,     0.000,     0.000,     0.000,     0.000,   1,1
    5,'1 ',1,   1,   1,     0.000,     0.000,     0.000,     0.000,     0.000,     0.000,   1,1
    6,'1 ',1,   1,   1,     0.000,     0.000,     0.000,     0.000,     0.000,     0.000,   1,1
    7,'1 ',1,   1,   1,   233.800,    84.000,     0.000,     0.000,     0.000,     0.000,   1,1
    8,'1 ',1,   1,   1,   522.000,   176.000,     0.000,     0.000,     0.000,     0.000,   1,1
    9,'1 ',1,   1,   1,     0.000,     0.000,     0.000,     0.000,     0.000,     0.000,   1,1
   10,'1 ',1,   1,   1,     0.000,     0.000,     0.000,     0.000,     0.000,     0.000,   1,1
   11,'1 ',1,   1,   1,     0.000,     0.000,     0.000,     0.000,     0.000,     0.000,   1,1
   12,'1 ',1,   1,   1,     7.500,    88.000,     0.000,     0.000,     0.000,     0.000,   1,1
   13,'1 ',1,   1,   1,     0.000,     0.000,     0.000,     0.000,     0.000,     0.000,   1,1
   14,'1 ',1,   1,   1,     0.000,     0.000,     0.000,     0.000,     0.000,     0.000,   1,1
   15,'1 ',1,   1,   1,   320.000,   153.000,     0.000,     0.000,     0.000,     0.000,   1,1
   16,'1 ',1,   1,   1,   329.400,    32.300,     0.000,     0.000,     0.000,     0.000,   1,1
   17,'1 ',1,   1,   1,     0.000,     0.000,     0.000,     0.000,     0.000,     0.000,   1,1
   18,'1 ',1,   1,   1,   158.000,    30.000,     0.000,     0.000,     0.000,     0.000,   1,1
   19,'1 ',1,   1,   1,     0.000,     0.000,     0.000,     0.000,     0.000,     0.000,   1,1
   20,'1 ',1,   1,   1,   628.000,   103.000,     0.000,     0.000,     0.000,     0.000,   1,1
   21,'1 ',1,   1,   1,   274.000,   115.000,     0.000,     0.000,     0.000,     0.000,   1,1
   22,'1 ',1,   1,   1,     0.000,     0.000,     0.000,     0.000,     0.000,     0.000,   1,1
   23,'1 ',1,   1,   1,   274.500,    84.600,     0.000,     0.000,     0.000,     0.000,   1,1
   24,'1 ',1,   1,   1,   308.600,   -92.200,     0.000,     0.000,     0.000,     0.000,   1,1
   25,'1 ',1,   1,   1,   224.000,    47.200,     0.000,     0.000,     0.000,     0.000,   1,1
   26,'1 ',1,   1,   1,   139.000,    17.000,     0.000,     0.000,     0.000,     0.000,   1,1
   27,'1 ',1,   1,   1,   281.000,    75.500,     0.000,     0.000,     0.000,     0.000,   1,1
   28,'1 ',1,   1,   1,   206.000,    27.600,     0.000,     0.000,     0.000,     0.000,   1,1
   29,'1 ',1,   1,   1,   283.500,    26.900,     0.000,     0.000,     0.000,     0.000,   1,1
   31,'1 ',1,   1,   1,     9.200,     4.600,     0.000,     0.000,     0.000,     0.000,   1,1
   39,'1 ',1,   1,   1,  1104.000,   250.000,     0.000,     0.000,     0.000,     0.000,   1,1
0 / END OF LOAD DATA, BEGIN FIXED SHUNT DATA
     4,' 1', 1,     0.000,   100.000
     5,' 1', 1,     0.000,   200.000
0 / END OF FIXED SHUNT DATA, BEGIN GENERATOR DATA
   30,'1 ',   250.000,   132.937,   800.000,  -500.000,1.04800,    0,   200.000,   0.00000,   0.05000,   0.00000,   0.00000,1.00000,1,  100.0,  9999.900,     0.000,   1,1.0000,   0,1.0000,   0,1.0000,   0,1.0000,0, 1.0000
   31,'1 ',   547.326,   -45.966,   800.000,  -500.000,0.98200,    0,   100.000,   0.00000,   0.05000,   0.00000,   0.00000,1.00000,1,  100.0,  9999.900,     0.000,   1,1.0000,   0,1.0000,   0,1.0000,   0,1.0000,0, 1.0000
   32,'1 ',   650.000,   185.267,   800.000,  -500.000,0.98300,    0,   200.000,   0.00000,   0.09000,   0.00000,   0.00000,1.00000,1,  100.0,  9999.900,     0.000,   1,1.0000,   0,1.0000,   0,1.0000,   0,1.0000,0, 1.0000
   33,'1 ',   632.000,   101.136,   800.000,  -500.000,0.99700,    0,   200.000,   0.00000,   0.07000,   0.00000,   0.00000,1.00000,1,  100.0,  9999.900,     0.000,   1,1.0000,   0,1.0000,   0,1.0000,   0,1.0000,0, 1.0000
   34,'1 ',   508.000,   161.375,   800.000,  -300.000,1.01200,    0,   100.000,   0.00000,   0.08900,   0.00000,   0.00000,1.00000,1,  100.0,  9999.900,     0.000,   1,1.0000,   0,1.0000,   0,1.0000,   0,1.0000,0, 1.0000
   35,'1 ',   650.000,   200.254,   800.000,  -500.000,1.04900,    0,   200.000,   0.00000,   0.08000,   0.00000,   0.00000,1.00000,1,  100.0,  9999.900,     0.000,   1,1.0000,   0,1.0000,   0,1.0000,   0,1.0000,0, 1.0000
   36,'1 ',   560.000,    97.192,   800.000,  -500.000,1.06400,    0,   200.000,   0.00000,   0.08800,   0.00000,   0.00000,1.00000,1,  100.0,  9999.900,     0.000,   1,1.0000,   0,1.0000,   0,1.0000,   0,1.0000,0, 1.0000
   37,'1 ',   540.000,    -7.786,   800.000,  -500.000,1.02800,    0,   200.000,   0.00000,   0.09000,   0.00000,   0.00000,1.00000,1,  100.0,  9999.900,     0.000,   1,1.0000,   0,1.0000,   0,1.0000,   0,1.0000,0, 1.0000
   38,'1 ',   830.000,    18.124,   800.000,  -500.000,1.02700,    0,   200.000,   0.00000,   0.09000,   0.00000,   0.00000,1.00000,1,  100.0,  9999.900,     0.000,   1,1.0000,   0,1.0000,   0,1.0000,   0,1.0000,0, 1.0000
   39,'1 ',  1000.000,    73.603,  1500.000, -1000.000,1.03000,    0,  2000.000,   0.00000,   0.08000,   0.00000,   0.00000,1.00000,1,  100.0,  9999.900,     0.000,   1,1.0000,   0,1.0000,   0,1.0000,   0,1.0000,0, 1.0000
0 / END OF GENERATOR DATA, BEGIN BRANCH DATA
    1,     2,'1 ', 0.00350, 0.04110,0.69870,   0.00,   0.00,   1.00,  0.00000,  0.00000,  0.00000,  0.00000,1,1,   0.0,   1,1.0000,   0,1.0000,   0,1.0000,   0,1.0000
    1,    39,'1 ', 0.00100, 0.02500,0.75000,   0.00,   0.00,   1.00,  0.00000,  0.00000,  0.00000,  0.00000,1,1,   0.0,   1,1.0000,   0,1.0000,   0,1.0000,   0,1.0000
    2,     3,'1 ', 0.00130, 0.01510,0.25720,   0.00,   0.00,   1.00,  0.00000,  0.00000,  0.00000,  0.00000,1,1,   0.0,   1,1.0000,   0,1.0000,   0,1.0000,   0,1.0000
    2,    25,'1 ', 0.00700, 0.00860,0.14600,   0.00,   0.00,   1.00,  0.00000,  0.00000,  0.00000,  0.00000,1,1,   0.0,   1,1.0000,   0,1.0000,   0,1.0000,   0,1.0000
    3,     4,'1 ', 0.00130, 0.02130,0.22140,   0.00,   0.00,   1.00,  0.00000,  0.00000,  0.00000,  0.00000,1,1,   0.0,   1,1.0000,   0,1.0000,   0,1.0000,   0,1.0000
    3,    18,'1 ', 0.00110, 0.01330,0.21380,   0.00,   0.00,   1.00,  0.00000,  0.00000,  0.00000,  0.00000,1,1,   0.0,   1,1.0000,   0,1.0000,   0,1.0000,   0,1.0000
    4,     5,'1 ', 0.00080, 0.01280,0.13420,   0.00,   0.00,   1.00,  0.00000,  0.00000,  0.00000,  0.00000,1,1,   0.0,   1,1.0000,   0,1.0000,   0,1.0000,   0,1.0000
    4,    14,'1 ', 0.00080, 0.01290,0.13820,   0.00,   0.00,   1.00,  0.00000,  0.00000,  0.00000,  0.00000,1,1,   0.0,   1,1.0000,   0,1.0000,   0,1.0000,   0,1.0000
    5,     6,'1 ', 0.00020, 0.00260,0.04340,   0.00,   0.00,   1.00,  0.00000,  0.00000,  0.00000,  0.00000,1,2,   0.0,   1,1.0000,   0,1.0000,   0,1.0000,   0,1.0000
    5,     8,'1 ', 0.00080, 0.01120,0.14760,   0.00,   0.00,   1.00,  0.00000,  0.00000,  0.00000,  0.00000,1,1,   0.0,   1,1.0000,   0,1.0000,   0,1.0000,   0,1.0000
    6,     7,'1 ', 0.00060, 0.00920,0.11300,   0.00,   0.00,   1.00,  0.00000,  0.00000,  0.00000,  0.00000,1,1,   0.0,   1,1.0000,   0,1.0000,   0,1.0000,   0,1.0000
    6,    11,'1 ', 0.00070, 0.00820,0.13890,   0.00,   0.00,   1.00,  0.00000,  0.00000,  0.00000,  0.00000,1,1,   0.0,   1,1.0000,   0,1.0000,   0,1.0000,   0,1.0000
    7,     8,'1 ', 0.00040, 0.00460,0.07800,   0.00,   0.00,   1.00,  0.00000,  0.00000,  0.00000,  0.00000,1,1,   0.0,   1,1.0000,   0,1.0000,   0,1.0000,   0,1.0000
    8,     9,'1 ', 0.00230, 0.03630,0.38040,   0.00,   0.00,   1.00,  0.00000,  0.00000,  0.00000,  0.00000,1,1,   0.0,   1,1.0000,   0,1.0000,   0,1.0000,   0,1.0000
    9,    39,'1 ', 0.00100, 0.02500,1.20000,   0.00,   0.00,   1.00,  0.00000,  0.00000,  0.00000,  0.00000,1,1,   0.0,   1,1.0000,   0,1.0000,   0,1.0000,   0,1.0000
   10,    11,'1 ', 0.00040, 0.00430,0.07290,   0.00,   0.00,   1.00,  0.00000,  0.00000,  0.00000,  0.00000,1,1,   0.0,   1,1.0000,   0,1.0000,   0,1.0000,   0,1.0000
   10,    13,'1 ', 0.00040, 0.00430,0.07290,   0.00,   0.00,   1.00,  0.00000,  0.00000,  0.00000,  0.00000,1,1,   0.0,   1,1.0000,   0,1.0000,   0,1.0000,   0,1.0000
   13,    14,'1 ', 0.00090, 0.01010,0.17230,   0.00,   0.00,   1.00,  0.00000,  0.00000,  0.00000,  0.00000,1,1,   0.0,   1,1.0000,   0,1.0000,   0,1.0000,   0,1.0000
   14,    15,'1 ', 0.00180, 0.02170,0.36600,   0.00,   0.00,   1.00,  0.00000,  0.00000,  0.00000,  0.00000,1,1,   0.0,   1,1.0000,   0,1.0000,   0,1.0000,   0,1.0000
   15,    16,'1 ', 0.00090, 0.00940,0.17100,   0.00,   0.00,   1.00,  0.00000,  0.00000,  0.00000,  0.00000,1,1,   0.0,   1,1.0000,   0,1.0000,   0,1.0000,   0,1.0000
   16,    17,'1 ', 0.00070, 0.00890,0.13420,   0.00,   0.00,   1.00,  0.00000,  0.00000,  0.00000,  0.00000,1,1,   0.0,   1,1.0000,   0,1.0000,   0,1.0000,   0,1.0000
   16,    19,'1 ', 0.00160, 0.01950,0.30400,   0.00,   0.00,   1.00,  0.00000,  0.00000,  0.00000,  0.00000,1,1,   0.0,   1,1.0000,   0,1.0000,   0,1.0000,   0,1.0000
   16,    21,'1 ', 0.00080, 0.01350,0.25480,   0.00,   0.00,   1.00,  0.00000,  0.00000,  0.00000,  0.00000,1,1,   0.0,   1,1.0000,   0,1.0000,   0,1.0000,   0,1.0000
   16,    24,'1 ', 0.00030, 0.00590,0.06800,   0.00,   0.00,   1.00,  0.00000,  0.00000,  0.00000,  0.00000,1,1,   0.0,   1,1.0000,   0,1.0000,   0,1.0000,   0,1.0000
   17,    18,'1 ', 0.00070, 0.00820,0.13190,   0.00,   0.00,   1.00,  0.00000,  0.00000,  0.00000,  0.00000,1,1,   0.0,   1,1.0000,   0,1.0000,   0,1.0000,   0,1.0000
   17,    27,'1 ', 0.00130, 0.01730,0.32160,   0.00,   0.00,   1.00,  0.00000,  0.00000,  0.00000,  0.00000,1,1,   0.0,   1,1.0000,   0,1.0000,   0,1.0000,   0,1.0000
   21,    22,'1 ', 0.00080, 0.01400,0.25650,   0.00,   0.00,   1.00,  0.00000,  0.00000,  0.00000,  0.00000,1,1,   0.0,   1,1.0000,   0,1.0000,   0,1.0000,   0,1.0000
   22,    23,'1 ', 0.00060, 0.00960,0.18460,   0.00,   0.00,   1.00,  0.00000,  0.00000,  0.00000,  0.00000,1,1,   0.0,   1,1.0000,   0,1.0000,   0,1.0000,   0,1.0000
   23,    24,'1 ', 0.00220, 0.03500,0.36100,   0.00,   0.00,   1.00,  0.00000,  0.00000,  0.00000,  0.00000,1,1,   0.0,   1,1.0000,   0,1.0000,   0,1.0000,   0,1.0000
   25,    26,'1 ', 0.00320, 0.03230,0.51300,   0.00,   0.00,   1.00,  0.00000,  0.00000,  0.00000,  0.00000,1,1,   0.0,   1,1.0000,   0,1.0000,   0,1.0000,   0,1.0000
   26,    27,'1 ', 0.00140, 0.01470,0.23960,   0.00,   0.00,   1.00,  0.00000,  0.00000,  0.00000,  0.00000,1,1,   0.0,   1,1.0000,   0,1.0000,   0,1.0000,   0,1.0000
   26,    28,'1 ', 0.00430, 0.04740,0.78020,   0.00,   0.00,   1.00,  0.00000,  0.00000,  0.00000,  0.00000,1,1,   0.0,   1,1.0000,   0,1.0000,   0,1.0000,   0,1.0000
   26,    29,'1 ', 0.00570, 0.06250,1.02900,   0.00,   0.00,   1.00,  0.00000,  0.00000,  0.00000,  0.00000,1,1,   0.0,   1,1.0000,   0,1.0000,   0,1.0000,   0,1.0000
   28,    29,'1 ', 0.00140, 0.01510,0.24900,   0.00,   0.00,   1.00,  0.00000,  0.00000,  0.00000,  0.00000,1,1,   0.0,   1,1.0000,   0,1.0000,   0,1.0000,   0,1.0000
0 / END OF BRANCH DATA, BEGIN TRANSFORMER DATA
    2,   30,    0,'1 ',1,1,1,  0.00000,  0.00000,2,'            ',1,   1,1.0000,   0,1.0000,   0,1.0000,   0,1.0000
 0.00000, 0.01810, 100.00
1.02500,  1.000,   0.000,   0.00,   0.00,   0.00,0,     0, 1.20000, 0.80000, 1.20000, 0.80000,  8, 0, 0.00000, 0.00000
1.00000,  1.000
   31,    6,    0,'1 ',1,1,1,  0.00000,  0.00000,2,'            ',1,   1,1.0000,   0,1.0000,   0,1.0000,   0,1.0000
 0.00000, 0.02500, 100.00
0.99300,  1.000,   0.000,   0.00,   0.00,   0.00,1,     6, 1.20000, 0.80000, 1.17000, 0.98000,  8, 0, 0.00000, 0.00000
1.00000,  1.000
   10,   32,    0,'1 ',1,1,1,  0.00000,  0.00000,2,'            ',1,   1,1.0000,   0,1.0000,   0,1.0000,   0,1.0000
 0.00000, 0.02000, 100.00
1.07000,  1.000,   0.000,   0.00,   0.00,   0.00,0,     0, 1.20000, 0.80000, 1.20000, 0.80000,  8, 0, 0.00000, 0.00000
1.00000,  1.000
   12,   11,    0,'1 ',1,1,1,  0.00000,  0.00000,2,'            ',1,   1,1.0000,   0,1.0000,   0,1.0000,   0,1.0000
 0.00160, 0.04350, 100.00
1.00600,  1.000,   0.000,   0.00,   0.00,   0.00,0,     0, 1.20000, 0.80000, 1.20000, 0.80000,  8, 0, 0.00000, 0.00000
1.00000,  1.000
   12,   13,    0,'1 ',1,1,1,  0.00000,  0.00000,2,'            ',1,   1,1.0000,   0,1.0000,   0,1.0000,   0,1.0000
 0.00160, 0.04350, 100.00
1.00600,  1.000,   0.000,   0.00,   0.00,   0.00,0,     0, 1.20000, 0.80000, 1.20000, 0.80000,  8, 0, 0.00000, 0.00000
1.00000,  1.000
   19,   20,    0,'1 ',1,1,1,  0.00000,  0.00000,2,'            ',1,   1,1.0000,   0,1.0000,   0,1.0000,   0,1.0000
 0.00070, 0.01380, 100.00
1.06000,  1.000,   0.000,   0.00,   0.00,   0.00,0,     0, 1.20000, 0.80000, 1.20000, 0.80000,  8, 0, 0.00000, 0.00000
1.00000,  1.000
   19,   33,    0,'1 ',1,1,1,  0.00000,  0.00000,2,'            ',1,   1,1.0000,   0,1.0000,   0,1.0000,   0,1.0000
 0.00070, 0.01420, 100.00
1.07000,  1.000,   0.000,   0.00,   0.00,   0.00,0,     0, 1.20000, 0.80000, 1.20000, 0.80000,  8, 0, 0.00000, 0.00000
1.00000,  1.000
   20,   34,    0,'1 ',1,1,1,  0.00000,  0.00000,2,'            ',1,   1,1.0000,   0,1.0000,   0,1.0000,   0,1.0000
 0.00090, 0.01800, 100.00
1.00900,  1.000,   0.000,   0.00,   0.00,   0.00,0,     0, 1.20000, 0.80000, 1.20000, 0.80000,  8, 0, 0.00000, 0.00000
1.00000,  1.000
   22,   35,    0,'1 ',1,1,1,  0.00000,  0.00000,2,'            ',1,   1,1.0000,   0,1.0000,   0,1.0000,   0,1.0000
 0.00000, 0.01430, 100.00
1.02500,  1.000,   0.000,   0.00,   0.00,   0.00,0,     0, 1.20000, 0.80000, 1.20000, 0.80000,  8, 0, 0.00000, 0.00000
1.00000,  1.000
   23,   36,    0,'1 ',1,1,1,  0.00000,  0.00000,2,'            ',1,   1,1.0000,   0,1.0000,   0,1.0000,   0,1.0000
 0.00050, 0.02720, 100.00
1.00000,  1.000,   0.000,   0.00,   0.00,   0.00,0,     0, 1.20000, 0.80000, 1.20000, 0.80000,  8, 0, 0.00000, 0.00000
1.00000,  1.000
   25,   37,    0,'1 ',1,1,1,  0.00000,  0.00000,2,'            ',1,   1,1.0000,   0,1.0000,   0,1.0000,   0,1.0000
 0.00060, 0.02320, 100.00
1.02500,  1.000,   0.000,   0.00,   0.00,   0.00,0,     0, 1.20000, 0.80000, 1.20000, 0.80000,  8, 0, 0.00000, 0.00000
1.00000,  1.000
   29,   38,    0,'1 ',1,1,1,  0.00000,  0.00000,2,'            ',1,   1,1.0000,   0,1.0000,   0,1.0000,   0,1.0000
 0.00080, 0.01560, 100.00
1.02500,  1.000,   0.000,   0.00,   0.00,   0.00,0,     0, 1.20000, 0.80000, 1.20000, 0.80000,  8, 0, 0.00000, 0.00000
1.00000,  1.000
0 / END OF TRANSFORMER DATA, BEGIN AREA DATA
   1,    0,     0.000,     1.000,'1           '
0 / END OF AREA DATA, BEGIN TWO-TERMINAL DC DATA
0 / END OF TWO-TERMINAL DC DATA, BEGIN VOLTAGE SOURCE CONVERTER DATA
0 / END OF VOLTAGE SOURCE CONVERTER DATA, BEGIN IMPEDANCE CORRECTION DATA
0 / END OF IMPEDANCE CORRECTION DATA, BEGIN MULTI-TERMINAL DC DATA
0 / END OF MULTI-TERMINAL DC DATA, BEGIN MULTI-SECTION LINE DATA
0 / END OF MULTI-SECTION LINE DATA, BEGIN ZONE DATA
   1,'1       '
0 / END OF ZONE DATA, BEGIN INTER-AREA TRANSFER DATA
0 / END OF INTER-AREA TRANSFER DATA, BEGIN OWNER DATA
    1,'1'
0 / END OF OWNER DATA, BEGIN FACTS CONTROL DEVICE DATA
0 / END OF FACTS CONTROL DEVICE DATA, BEGIN SWITCHED SHUNT DATA
0 /END OF SWITCHED SHUNT DATA, BEGIN GNE DEVICE DATA
0 /END OF GNE DEVICE DATA
Q
